[TITLE]


[JUNCTIONS]
;ID              	Elev        	Demand      	Pattern         
 J6              	25          	0           	                	;
 J7              	23          	55          	                	;
 J8              	23          	55          	                	;
 J9              	27.5        	40          	                	;
 J10             	31          	42          	                	;
 J1              	20          	30          	                	;
 J2              	22          	30          	                	;
 J3              	24          	33          	                	;
 J4              	30          	0           	                	;
 J13             	28          	50          	                	;
 J14             	30.0        	47.0        	                	;
 J15             	30          	42          	                	;
 J21             	35          	35          	                	;
 J22             	37          	40          	                	;
 J23             	0           	0           	PAT_2           	;
 J16             	33.0        	20.0        	                	;
 J12             	22          	48          	                	;
 J24             	37          	0           	                	;
 J25             	37          	0           	                	;
 J5              	25          	0           	                	;
 J11             	35          	25          	PAT_2           	;
 J17             	35          	15          	                	;
 J26             	35          	30          	                	;
 J27             	36.5        	40.0        	                	;
 J20             	45.0        	80.0        	PAT_3           	;
 J18             	40.0        	0           	                	;
 J19             	40.0        	0           	                	;

[RESERVOIRS]
;ID              	Head        	Pattern         
 R1              	150         	                	;

[TANKS]
;ID              	Elevation   	InitLevel   	MinLevel    	MaxLevel    	Diameter    	MinVol      	VolCurve
 T1              	132         	13.5        	1           	32.5        	85          	0           	                	;
 T2              	129         	29          	5           	40          	165         	0           	                	;

[PIPES]
;ID              	Node1           	Node2           	Length      	Diameter    	Roughness   	MinorLoss   	Status
 P1              	R1              	J5              	1000        	24          	100         	0           	Open  	;
 P10             	J6              	J7              	1000        	24          	100         	0           	Open  	;
 P11             	J7              	J8              	1000        	24          	100         	0           	Open  	;
 P12             	J8              	J9              	1000        	24          	100         	0           	Open  	;
 P13             	J9              	J10             	1000        	12          	100         	0           	Open  	;
 P14             	J10             	J11             	1000        	12          	100         	0           	Open  	;
 P20             	J11             	J17             	1000        	12          	100         	0           	Open  	;
 P25             	J17             	J16             	1000        	12          	100         	0           	Open  	;
 P19             	J16             	J10             	1000        	12          	100         	0           	Open  	;
 P24             	J16             	J15             	1000        	18          	100         	0           	Open  	;
 P28             	J15             	J22             	1000        	24          	100         	0           	Open  	;
 P33             	J22             	J23             	1000        	18          	100         	0           	Open  	;
 P38             	J23             	J27             	1000        	12          	100         	0           	Open  	;
 P39             	J27             	J26             	1000        	12          	100         	0           	Open  	;
 P37             	J26             	J22             	1000        	18          	100         	0           	Open  	;
 P32             	J22             	J21             	1000        	18          	100         	0           	Open  	;
 P34             	J21             	J24             	500         	12          	100         	0           	Open  	;
 P35             	J24             	J26             	1000        	12          	100         	0           	Open  	;
 P36             	J25             	T1              	350         	12          	100         	0           	Open  	;
 P26             	J12             	J20             	1000        	18          	100         	0           	Open  	;
 P15             	J12             	J6              	1000        	18          	100         	0           	Open  	;
 P21             	J12             	J13             	1000        	12          	100         	0           	Open  	;
 P22             	J13             	J14             	1000        	12          	100         	0           	Open  	;
 P23             	J14             	J15             	1000        	12          	100         	0           	Open  	;
 P27             	J21             	J14             	1000        	12          	100         	0           	Open  	;
 P17             	J14             	J8              	1000        	12          	100         	0           	Open  	;
 P16             	J13             	J7              	1000        	12          	100         	0           	Open  	;
 P6              	J1              	J7              	650         	10          	100         	0           	Open  	;
 P7              	J2              	J8              	650         	10          	100         	0           	Open  	;
 P8              	J3              	J9              	650         	10          	100         	0           	Open  	;
 P18             	J9              	J15             	1000        	24          	100         	0           	Open  	;
 P9              	J4              	J10             	650         	10          	100         	0           	Open  	;
 P5              	J4              	J3              	1000        	12          	100         	0           	Open  	;
 P4              	J3              	J2              	1000        	12          	100         	0           	Open  	;
 P3              	J2              	J1              	1000        	12          	100         	0           	Open  	;
 P2              	J1              	J6              	1200        	12          	100         	0           	Open  	;
 P29             	J16             	J18             	500         	18          	100         	0           	Open  	;
 P30             	J18             	J23             	500         	12          	100         	0           	Open  	;
 P31             	T2              	J19             	600         	18          	100         	0           	Open  	;
 P40             	J5              	J6              	250         	24          	100         	0           	Open  	;

[PUMPS]
;ID              	Node1           	Node2           	Parameters
 PUMP_1          	J5              	J6              	HEAD 1	;
 PUMP_2          	J5              	J6              	HEAD 2	;

[VALVES]
;ID              	Node1           	Node2           	Diameter    	Type	Setting     	MinorLoss   
 V2              	J25             	J24             	12          	PSV 	0           	0           	;
 V1              	J19             	J18             	18          	PSV 	0           	0           	;

[TAGS]

[DEMANDS]
;Junction        	Demand      	Pattern         	Category

[STATUS]
;ID              	Status/Setting

[PATTERNS]
;ID              	Multipliers
;Pattern ID = 1
 PAT_1           	0.2         	0.2         	0.6         	0.5         	0.8         	1.2         
 PAT_1           	1.2         	1.8         	2.0         	2.0         	2.5         	2.5         
 PAT_1           	3.0         	3.0         	2.5         	2.5         	2.2         	2.8         
 PAT_1           	2.6         	2.3         	2.3         	2.0         	1.5         	1.0         
;Pattern ID = 2
 PAT_2           	0.0         	0.2         	0.4         	0.6         	0.8         	1.5         
 PAT_2           	1.8         	2.0         	2.0         	2.0         	2.0         	2.4         
 PAT_2           	2.3         	2.2         	2.0         	2.0         	0.5         	0.5         
 PAT_2           	0.5         	0.2         	0.0         	0.0         	0.0         	0.0         
;Patterm ID = 3
 PAT_3           	1           	1           	0           	0           	0           	0           
 PAT_3           	0           	0           	0           	0           	0           	0           
 PAT_3           	0           	0           	0           	0           	0           	3.5         
 PAT_3           	4.0         	4.0         	4.5         	3.0         	2.5         	1.0         

[CURVES]
;ID              	X-Value     	Y-Value
;PUMP: 
 1               	0           	104         
 1               	2000        	92          
 1               	4000        	63          
;PUMP: 
 2               	0           	100         
 2               	8000        	60          
 2               	14000       	30          

[CONTROLS]

[RULES]

[ENERGY]
 Global Efficiency  	75
 Global Price       	0
 Demand Charge      	0

[EMITTERS]
;Junction        	Coefficient

[QUALITY]
;Node            	InitQual

[SOURCES]
;Node            	Type        	Quality     	Pattern

[REACTIONS]
;Type     	Pipe/Tank       	Coefficient


[REACTIONS]
 Order Bulk            	1
 Order Tank            	1
 Order Wall            	1
 Global Bulk           	0
 Global Wall           	0
 Limiting Potential    	0
 Roughness Correlation 	0

[MIXING]
;Tank            	Model

[TIMES]
 Duration           	0
 Hydraulic Timestep 	1:00
 Quality Timestep   	0:05
 Pattern Timestep   	1:00
 Pattern Start      	0:00
 Report Timestep    	1:00
 Report Start       	0:00
 Start ClockTime    	12 am
 Statistic          	None

[REPORT]
 Status             	No
 Summary            	No
 Page               	0

[OPTIONS]
 Units              	GPM
 Headloss           	H-W
 Specific Gravity   	1
 Viscosity          	1
 Trials             	40
 Accuracy           	0.001
 CHECKFREQ          	2
 MAXCHECK           	10
 DAMPLIMIT          	0
 Unbalanced         	Continue 10
 Pattern            	PAT_1
 Demand Multiplier  	1.0
 Emitter Exponent   	0.5
 Quality            	None mg/L
 Diffusivity        	1
 Tolerance          	0.01

[COORDINATES]
;Node            	X-Coord         	Y-Coord
 J6              	10.00           	80.00           
 J7              	35.00           	80.00           
 J8              	60.00           	80.00           
 J9              	85.00           	80.00           
 J10             	110.00          	80.00           
 J1              	35.00           	95.00           
 J2              	60.00           	95.00           
 J3              	85.00           	95.00           
 J4              	110.00          	95.00           
 J13             	35.00           	60.00           
 J14             	60.00           	60.00           
 J15             	85.00           	60.00           
 J21             	60.00           	40.00           
 J22             	85.00           	40.00           
 J23             	110.00          	40.00           
 J16             	110.00          	60.00           
 J12             	10.00           	60.00           
 J24             	60.00           	30.00           
 J25             	65.00           	30.00           
 J5              	5.00            	80.00           
 J11             	130.00          	80.00           
 J17             	130.00          	60.00           
 J26             	85.00           	20.00           
 J27             	110.00          	20.00           
 J20             	10.00           	40.00           
 J18             	110.00          	50.00           
 J19             	115.00          	50.00           
 R1              	0.00            	80.00           
 T1              	70.00           	30.00           
 T2              	125.00          	50.00           

[VERTICES]
;Link            	X-Coord         	Y-Coord
 P35             	61.04           	27.49           
 P35             	64.40           	23.83           
 P35             	68.06           	21.78           
 P35             	73.03           	21.05           
 P2              	27.56           	94.59           
 P2              	22.30           	91.52           
 P2              	15.57           	86.99           
 PUMP_1          	5.92            	82.02           
 PUMP_1          	8.70            	81.87           
 PUMP_2          	5.48            	77.92           
 PUMP_2          	8.85            	77.63           

[LABELS]
;X-Coord           Y-Coord          Label & Anchor Node

[BACKDROP]
 DIMENSIONS     	0.00            	0.00            	100.00          	100.00          
 UNITS          	None
 FILE           	
 OFFSET         	0.00            	0.00            

[END]
